/*--------------------------------*- C++ -*----------------------------------*\
| =========                 |                                                 |
| \\      /  F ield         | foam-extend: Open Source CFD                    |
|  \\    /   O peration     | Version:     4.1                                |
|   \\  /    A nd           | Web:         http://www.foam-extend.org         |
|    \\/     M anipulation  |                                                 |
\*---------------------------------------------------------------------------*/
FoamFile
{
    version     2.0;
    format      ascii;
    class       dictionary;
    location    "system";
    object      controlDict;
}
// * * * * * * * * * * * * * * * * * * * * * * * * * * * * * * * * * * * * * //

libs
(
    "libincompressibleRASModels.so"
    "liblduSolvers.so"
);

application     pimpleFoam;

startFrom       startTime;

startTime       0;

stopAt          endTime;

endTime         1e-1;

deltaT          1e-6;

writeControl    timeStep;

writeInterval   1000;

purgeWrite      0;

writeFormat     ascii;

writePrecision  20;

writeCompression uncompressed;

timeFormat      general;

timePrecision   20;

runTimeModifiable no;

adjustTimeStep  no;

maxCo           5;
InfoSwitches
{
    allowSystemOperations 1;
}
functions
{
    probes
    {
        // Where to load it from
        functionObjectLibs ( "libsampling.so" );

        type        probes;

        // Name of the directory for probe data
        name        probes;
        probeLocations
        (
            ( 1e-06 0 0.01 )        // at inlet
            ( 0.21 -0.20999 0.01 )  // at outlet1
            ( 0.21 0.20999 0.01 )   // at outlet2
            ( 0.21 0 0.01 )         // at central block
        );

        // Fields to be probed
        fields ( p U );

        // Write at same frequency as fields
        outputControl   outputTime;
        outputInterval  1;
    }
}


// ************************************************************************* //
