/*--------------------------------*- C++ -*----------------------------------*\
| =========                 |                                                 |
| \\      /  F ield         | foam-extend: Open Source CFD                    |
|  \\    /   O peration     | Version:     4.1                                |
|   \\  /    A nd           | Web:         http://www.foam-extend.org         |
|    \\/     M anipulation  |                                                 |
\*---------------------------------------------------------------------------*/
FoamFile
{
    version     2.0;
    format      ascii;
    class       dictionary;
    location    "system";
    object      fvSolution;
}
// * * * * * * * * * * * * * * * * * * * * * * * * * * * * * * * * * * * * * //

solvers
{
    p
    {
        solver          BiCGStab;
        preconditioner  DILU;
        tolerance       1e-16;
        relTol          0.; 
    } 
    c
    {
        solver          BiCGStab;
        preconditioner  DILU;
        tolerance       1e-16;
        relTol          0.;  
    }
 
    Psi_E
    {
        solver          BiCGStab;
        preconditioner  DILU;
        tolerance       1e-16;
        relTol          0.;  
    }
 
 
    pFinal
    {
        solver          GAMG;
        tolerance       1e-06;
        relTol          0;
        smoother        GaussSeidel;
        cacheAgglomeration true;
        nCellsInCoarsestLevel 10;
        agglomerator    faceAreaPair;
        mergeLevels     1;
    }
    U
    {
        solver          BiCGStab;
        preconditioner  DILU;
        tolerance       1e-15;
        relTol          0.1;
    }
    UFinal
    {
        solver          BiCGStab;
        preconditioner  DILU;
        tolerance       1e-15;
        relTol          0;
    }
    k
    {
        solver          BiCGStab;
        preconditioner  DILU;
        tolerance       1e-05;
        relTol          0;
    }
    epsilon
    {
        solver          BiCGStab;
        preconditioner  DILU;
        tolerance       1e-05;
        relTol          0;
    }
}

PIMPLE
{
    nOuterCorrectors 2;
    nCorrectors     2;
    nNonOrthogonalCorrectors 0;
    pRefCell        0;
    pRefValue       0;
}

relaxationFactors
{
    equations
    {
        U               0.8;
        UFinal          1;
        k               1;
        epsilon         1;
    }
    fields
    {
        p 0.8;
    }
}


// ************************************************************************* //
